Version 4
SHEET 1 880 680
WIRE -208 -96 -384 -96
WIRE -176 -96 -208 -96
WIRE -64 -96 -112 -96
WIRE 16 -96 -64 -96
WIRE 96 -96 16 -96
WIRE 176 -96 128 -96
WIRE 304 -96 176 -96
WIRE 432 -96 304 -96
WIRE -208 -64 -208 -96
WIRE -64 -64 -64 -96
WIRE 16 -64 16 -96
WIRE 176 -48 176 -96
WIRE 304 -48 304 -96
WIRE 432 -48 432 -96
WIRE 112 -32 112 -96
WIRE 128 -32 112 -32
WIRE -208 32 -208 0
WIRE -160 32 -208 32
WIRE -64 32 -64 0
WIRE -64 32 -96 32
WIRE 128 32 128 -32
WIRE 176 32 128 32
WIRE -384 80 -384 -32
WIRE -64 80 -64 32
WIRE -64 80 -384 80
WIRE -208 160 -208 32
WIRE 16 160 16 0
WIRE 16 160 -208 160
WIRE 64 160 16 160
WIRE 112 160 64 160
WIRE 304 160 304 16
WIRE 304 160 112 160
WIRE 432 160 432 32
WIRE 432 160 304 160
WIRE 64 208 64 160
FLAG 64 208 0
SYMBOL diode -176 -80 R270
WINDOW 0 60 64 VTop 2
WINDOW 3 0 32 VBottom 2
SYMATTR InstName D1
SYMBOL diode -48 0 R180
WINDOW 0 24 64 Left 2
WINDOW 3 24 0 Left 2
SYMATTR InstName D2
SYMBOL diode -192 0 R180
WINDOW 0 -35 23 Left 2
WINDOW 3 24 0 Left 2
SYMATTR InstName D3
SYMBOL diode -160 48 R270
WINDOW 0 -48 5 VTop 2
WINDOW 3 0 32 VBottom 2
SYMATTR InstName D4
SYMBOL cap 0 -64 R0
SYMATTR InstName C1
SYMATTR Value 1000m
SYMBOL cap 288 -48 R0
WINDOW 0 -35 10 Left 2
SYMATTR InstName Retirar_Ruido
SYMATTR Value 100n
SYMBOL res 160 -64 R0
SYMATTR InstName R1
SYMATTR Value 260
SYMBOL res 416 -64 R0
SYMATTR InstName Carga
SYMATTR Value 10
SYMBOL Reguladores\\LM317 112 -160 M0
SYMATTR InstName U1
SYMBOL Potenciômetros\\POT5K 112 64 R0
SYMATTR InstName U2
SYMBOL SEL300\\220V -384 -64 R0
SYMATTR InstName U3
TEXT 296 368 Left 2 !Fonte 3-12V
TEXT -418 388 Left 2 !.tran 0 10 1 5
